# --------------------------------------------------------
# Created by: Kristijan Kolozvari
# Model generating using CEO Software (Convert ETABS to OpenSees, ceostructural.com)
# --------------------------------------------------------

wipe all

# --------------------------------------------------------
# Start of model generation
# --------------------------------------------------------
set dataDir TUB_Analysis_Results

file mkdir $dataDir; # Create ModelBuilder for 3D element (with three-dimensions and 6 DOF/node)
model BasicBuilder -ndm 3 -ndf 6

# --------------------------------------------
# Set geometry, nodes, boundary conditions
# --------------------------------------------
# Nodes 
# node $nodeTag (ndm $coords) <-mass (ndf $massValues)>
node 1 47.24 0.0 10.433
node 2 47.24 39.37 10.433
node 3 47.24 39.37 20.866
node 4 47.24 0.0 20.866
node 5 47.24 0.0 0.0
node 6 47.24 39.37 0.0
node 7 47.24 39.37 31.299
node 8 47.24 0.0 31.299
node 9 47.24 39.37 41.732
node 10 47.24 0.0 41.732
node 11 47.24 39.37 52.165
node 12 47.24 0.0 52.165
node 13 47.24 39.37 62.598
node 14 47.24 0.0 62.598
node 15 47.24 39.37 73.031
node 16 47.24 0.0 73.031
node 17 47.24 39.37 83.465
node 18 47.24 0.0 83.465
node 19 47.24 39.37 93.898
node 20 47.24 0.0 93.898
# ... 47 like lines cut

# Restraint Fixes
# fix $nodeTag (ndf $constrValues)
fix 34 1 1 1 0 0 0
fix 6 1 1 1 0 0 0
fix 5 1 1 1 0 0 0
fix 33 1 1 1 0 0 0

# ------------------------------
# Define materials
# ------------------------------
# Elastic Materials
set k 0.5;
uniaxialMaterial Elastic 1 [expr $k*314705];
uniaxialMaterial Elastic 2 [expr $k*377646];

# Concrete Materials
uniaxialMaterial Concrete02 201 -7.934 -0.0023 0 -0.01 0.079 0.356292015066294 253.858060734734   ;
uniaxialMaterial Concrete02 202 -9.521 -0.0029 -0.9521 -0.1 0.069 0.356292015066294 253.858060734734   ;

# Steel Materials
uniaxialMaterial SteelMPF 301 68.313 68.313 27847.246 0.0055 0.0055 20 0.925 0.15    ;
uniaxialMaterial SteelMPF 302 75.1295 75.1295 26831.98 0.017 0.017 20 0.925 0.15    ;

# ------------------------------
#  Define shell sections
# ------------------------------
# section ElasticMembranePlateSection $secTag $E $nu $h $rho 
section ElasticMembranePlateSection 10001 4000 0.2 6 0; 

# ------------------------------
#  Define elements
# ------------------------------
# Area Elements
element MVLEM_3D 1 1 2 3 4 10 -thick 3.937 3.937 3.937 3.937 3.937 3.937 3.937 3.937 3.937 3.937 -width 3.445 3.445 4.595 4.595 4.595 4.595 4.595 4.595 2.46 2.46 -rho 0.0387 0.0387 0.00342 0.00342 0.00342 0.00342 0.00342 0.00342 0.0226 0.0226 -matConcrete 202 202 201 201 201 201 201 201 202 202 -matSteel 301 301 302 302 302 302 302 302 301 301 -matShear 1;
element MVLEM_3D 2 5 6 2 1 10 -thick 3.937 3.937 3.937 3.937 3.937 3.937 3.937 3.937 3.937 3.937 -width 3.445 3.445 4.595 4.595 4.595 4.595 4.595 4.595 2.46 2.46 -rho 0.0387 0.0387 0.00342 0.00342 0.00342 0.00342 0.00342 0.00342 0.0226 0.0226 -matConcrete 202 202 201 201 201 201 201 201 202 202 -matSteel 301 301 302 302 302 302 302 302 301 301 -matShear 1;
element MVLEM_3D 3 4 3 7 8 10 -thick 3.937 3.937 3.937 3.937 3.937 3.937 3.937 3.937 3.937 3.937 -width 3.445 3.445 4.595 4.595 4.595 4.595 4.595 4.595 2.46 2.46 -rho 0.0387 0.0387 0.00342 0.00342 0.00342 0.00342 0.00342 0.00342 0.0226 0.0226 -matConcrete 202 202 201 201 201 201 201 201 202 202 -matSteel 301 301 302 302 302 302 302 302 301 301 -matShear 1;
element MVLEM_3D 4 8 7 9 10 10 -thick 3.937 3.937 3.937 3.937 3.937 3.937 3.937 3.937 3.937 3.937 -width 3.445 3.445 4.595 4.595 4.595 4.595 4.595 4.595 2.46 2.46 -rho 0.0387 0.0387 0.00342 0.00342 0.00342 0.00342 0.00342 0.00342 0.0226 0.0226 -matConcrete 202 202 201 201 201 201 201 201 202 202 -matSteel 301 301 302 302 302 302 302 302 301 301 -matShear 1;
element MVLEM_3D 5 10 9 11 12 10 -thick 3.937 3.937 3.937 3.937 3.937 3.937 3.937 3.937 3.937 3.937 -width 3.445 3.445 4.595 4.595 4.595 4.595 4.595 4.595 2.46 2.46 -rho 0.0387 0.0387 0.00342 0.00342 0.00342 0.00342 0.00342 0.00342 0.0226 0.0226 -matConcrete 202 202 201 201 201 201 201 201 202 202 -matSteel 301 301 302 302 302 302 302 302 301 301 -matShear 1;
element MVLEM_3D 6 12 11 13 14 10 -thick 3.937 3.937 3.937 3.937 3.937 3.937 3.937 3.937 3.937 3.937 -width 3.445 3.445 4.595 4.595 4.595 4.595 4.595 4.595 2.46 2.46 -rho 0.0387 0.0387 0.00342 0.00342 0.00342 0.00342 0.00342 0.00342 0.0226 0.0226 -matConcrete 202 202 201 201 201 201 201 201 202 202 -matSteel 301 301 302 302 302 302 302 302 301 301 -matShear 1;
element MVLEM_3D 7 14 13 15 16 10 -thick 3.937 3.937 3.937 3.937 3.937 3.937 3.937 3.937 3.937 3.937 -width 3.445 3.445 4.595 4.595 4.595 4.595 4.595 4.595 2.46 2.46 -rho 0.0387 0.0387 0.00342 0.00342 0.00342 0.00342 0.00342 0.00342 0.0226 0.0226 -matConcrete 202 202 201 201 201 201 201 201 202 202 -matSteel 301 301 302 302 302 302 302 302 301 301 -matShear 1;
element MVLEM_3D 8 16 15 17 18 10 -thick 3.937 3.937 3.937 3.937 3.937 3.937 3.937 3.937 3.937 3.937 -width 3.445 3.445 4.595 4.595 4.595 4.595 4.595 4.595 2.46 2.46 -rho 0.0387 0.0387 0.00342 0.00342 0.00342 0.00342 0.00342 0.00342 0.0226 0.0226 -matConcrete 202 202 201 201 201 201 201 201 202 202 -matSteel 301 301 302 302 302 302 302 302 301 301 -matShear 1;
element MVLEM_3D 9 18 17 19 20 10 -thick 3.937 3.937 3.937 3.937 3.937 3.937 3.937 3.937 3.937 3.937 -width 3.445 3.445 4.595 4.595 4.595 4.595 4.595 4.595 2.46 2.46 -rho 0.0387 0.0387 0.00342 0.00342 0.00342 0.00342 0.00342 0.00342 0.0226 0.0226 -matConcrete 202 202 201 201 201 201 201 201 202 202 -matSteel 301 301 302 302 302 302 302 302 301 301 -matShear 1;
element MVLEM_3D 10 20 19 21 22 10 -thick 3.937 3.937 3.937 3.937 3.937 3.937 3.937 3.937 3.937 3.937 -width 3.445 3.445 4.595 4.595 4.595 4.595 4.595 4.595 2.46 2.46 -rho 0.0387 0.0387 0.00342 0.00342 0.00342 0.00342 0.00342 0.00342 0.0226 0.0226 -matConcrete 202 202 201 201 201 201 201 201 202 202 -matSteel 301 301 302 302 302 302 302 302 301 301 -matShear 1;
element MVLEM_3D 11 22 21 23 24 10 -thick 11.81 11.81 11.81 11.81 11.81 11.81 11.81 11.81 11.81 11.81 -width 3.445 3.445 4.595 4.595 4.595 4.595 4.595 4.595 2.46 2.46 -rho 0.05 0.05 0.05 0.05 0.05 0.05 0.05 0.05 0.05 0.05 -matConcrete 202 202 202 202 202 202 202 202 202 202 -matSteel 301 301 301 301 301 301 301 301 301 301 -matShear 1;
element MVLEM_3D 12 24 23 25 26 10 -thick 11.81 11.81 11.81 11.81 11.81 11.81 11.81 11.81 11.81 11.81 -width 3.445 3.445 4.595 4.595 4.595 4.595 4.595 4.595 2.46 2.46 -rho 0.05 0.05 0.05 0.05 0.05 0.05 0.05 0.05 0.05 0.05 -matConcrete 202 202 202 202 202 202 202 202 202 202 -matSteel 301 301 301 301 301 301 301 301 301 301 -matShear 1;
element MVLEM_3D 13 26 25 27 28 10 -thick 11.81 11.81 11.81 11.81 11.81 11.81 11.81 11.81 11.81 11.81 -width 3.445 3.445 4.595 4.595 4.595 4.595 4.595 4.595 2.46 2.46 -rho 0.05 0.05 0.05 0.05 0.05 0.05 0.05 0.05 0.05 0.05 -matConcrete 202 202 202 202 202 202 202 202 202 202 -matSteel 301 301 301 301 301 301 301 301 301 301 -matShear 1;
element MVLEM_3D 14 29 30 31 32 10 -thick 3.937 3.937 3.937 3.937 3.937 3.937 3.937 3.937 3.937 3.937 -width 3.445 3.445 4.595 4.595 4.595 4.595 4.595 4.595 2.46 2.46 -rho 0.0387 0.0387 0.00342 0.00342 0.00342 0.00342 0.00342 0.00342 0.0226 0.0226 -matConcrete 202 202 201 201 201 201 201 201 202 202 -matSteel 301 301 302 302 302 302 302 302 301 301 -matShear 1;
element MVLEM_3D 15 33 34 30 29 10 -thick 3.937 3.937 3.937 3.937 3.937 3.937 3.937 3.937 3.937 3.937 -width 3.445 3.445 4.595 4.595 4.595 4.595 4.595 4.595 2.46 2.46 -rho 0.0387 0.0387 0.00342 0.00342 0.00342 0.00342 0.00342 0.00342 0.0226 0.0226 -matConcrete 202 202 201 201 201 201 201 201 202 202 -matSteel 301 301 302 302 302 302 302 302 301 301 -matShear 1;
element MVLEM_3D 16 32 31 35 36 10 -thick 3.937 3.937 3.937 3.937 3.937 3.937 3.937 3.937 3.937 3.937 -width 3.445 3.445 4.595 4.595 4.595 4.595 4.595 4.595 2.46 2.46 -rho 0.0387 0.0387 0.00342 0.00342 0.00342 0.00342 0.00342 0.00342 0.0226 0.0226 -matConcrete 202 202 201 201 201 201 201 201 202 202 -matSteel 301 301 302 302 302 302 302 302 301 301 -matShear 1;
element MVLEM_3D 17 36 35 37 38 10 -thick 3.937 3.937 3.937 3.937 3.937 3.937 3.937 3.937 3.937 3.937 -width 3.445 3.445 4.595 4.595 4.595 4.595 4.595 4.595 2.46 2.46 -rho 0.0387 0.0387 0.00342 0.00342 0.00342 0.00342 0.00342 0.00342 0.0226 0.0226 -matConcrete 202 202 201 201 201 201 201 201 202 202 -matSteel 301 301 302 302 302 302 302 302 301 301 -matShear 1;
element MVLEM_3D 18 38 37 39 40 10 -thick 3.937 3.937 3.937 3.937 3.937 3.937 3.937 3.937 3.937 3.937 -width 3.445 3.445 4.595 4.595 4.595 4.595 4.595 4.595 2.46 2.46 -rho 0.0387 0.0387 0.00342 0.00342 0.00342 0.00342 0.00342 0.00342 0.0226 0.0226 -matConcrete 202 202 201 201 201 201 201 201 202 202 -matSteel 301 301 302 302 302 302 302 302 301 301 -matShear 1;
element MVLEM_3D 19 40 39 41 42 10 -thick 3.937 3.937 3.937 3.937 3.937 3.937 3.937 3.937 3.937 3.937 -width 3.445 3.445 4.595 4.595 4.595 4.595 4.595 4.595 2.46 2.46 -rho 0.0387 0.0387 0.00342 0.00342 0.00342 0.00342 0.00342 0.00342 0.0226 0.0226 -matConcrete 202 202 201 201 201 201 201 201 202 202 -matSteel 301 301 302 302 302 302 302 302 301 301 -matShear 1;
element MVLEM_3D 20 42 41 43 44 10 -thick 3.937 3.937 3.937 3.937 3.937 3.937 3.937 3.937 3.937 3.937 -width 3.445 3.445 4.595 4.595 4.595 4.595 4.595 4.595 2.46 2.46 -rho 0.0387 0.0387 0.00342 0.00342 0.00342 0.00342 0.00342 0.00342 0.0226 0.0226 -matConcrete 202 202 201 201 201 201 201 201 202 202 -matSteel 301 301 302 302 302 302 302 302 301 301 -matShear 1;
# ... 19 like lines cut
element ShellMITC4 40 57 58 59 60 10001

# Line Elements
geomTransf Linear 1 0 0 1; # local z vertical

# element elasticBeamColumn $eleTag $iNode $jNode $A $E $G $J $Iy $Iz $transfTag <-mass $massDens> <-cMass>
element elasticBeamColumn 10006 53 59 576000.0 3600.0 1500.0 47026300.0 27648000.0 27648000.0 1
element elasticBeamColumn 10007 59 25 576000.0 3600.0 1500.0 47026300.0 27648000.0 27648000.0 1
element elasticBeamColumn 10008 58 23 576000.0 3600.0 1500.0 47026300.0 27648000.0 27648000.0 1
element elasticBeamColumn 10009 51 58 576000.0 3600.0 1500.0 47026300.0 27648000.0 27648000.0 1
element elasticBeamColumn 10002 27 66 576000.0 3600.0 1500.0 47026300.0 27648000.0 27648000.0 1
element elasticBeamColumn 10005 65 55 576000.0 3600.0 1500.0 47026300.0 27648000.0 27648000.0 1
element elasticBeamColumn 10000 28 67 576000.0 3600.0 1500.0 47026300.0 27648000.0 27648000.0 1
element elasticBeamColumn 10001 67 66 576000.0 3600.0 1500.0 47026300.0 27648000.0 27648000.0 1
element elasticBeamColumn 10003 56 64 576000.0 3600.0 1500.0 47026300.0 27648000.0 27648000.0 1
element elasticBeamColumn 10004 64 65 576000.0 3600.0 1500.0 47026300.0 27648000.0 27648000.0 1

# Springs (supports at location of actuators)
uniaxialMaterial Elastic 601 100000
uniaxialMaterial Elastic 602 200000

equalDOF 51 61 1 3 4 5 6
element zeroLength 61 51 61 -mat 601 -dir 2
fix 61 0 1 0 0 0 0

equalDOF 23 62 1 3 4 5 6
element zeroLength 62 23 62 -mat 601 -dir 2
fix 62 0 1 0 0 0 0

equalDOF 25 63 2 3 4 5 6
element zeroLength 63 25 63 -mat 602 -dir 1
fix 63 1 0 0 0 0 0

# ------------------------------
#  Define recorders
# ------------------------------
set IDctrlNode 57; # Control node

# NODE Recorders:
# ----------------------------------------------------------------
recorder Node -file $dataDir/REACTIONS_1.out -time -node 34 6 5 33 -dof 1 2 3 4 5 6 reaction
recorder Node -file $dataDir/NODE_DISP_2950.out -time -node $IDctrlNode -dof 1 2 3 4 5 6 disp
recorder Node -file $dataDir/NODE_DISP_3350.out -time -node 60 -dof 1 2 3 4 5 6 disp

puts "Model generated successfully."